******
** ngspice-33 : Circuit level simulation program
** The U. C. Berkeley CAD Group
** Copyright 1985-1994, Regents of the University of California.
** Copyright 2001-2020, The ngspice team.
** Please get your ngspice manual from http://ngspice.sourceforge.net/docs.html
** Please file your bug-reports at http://ngspice.sourceforge.net/bugrep.html
** Creation Date: Thu Oct 22 18:23:04 UTC 2020
******

Circuit: .filter_single_ended.cir

Doing analysis at TEMP = 27.000000 and TNOM = 27.000000


No. of Data Rows : 818
                            .filter_single_ended.cir
                            AC Analysis  Mon Feb 15 02:12:33  2021
--------------------------------------------------------------------------------
Index   frequency       vdb(out)        
--------------------------------------------------------------------------------
0	1.000000e+00	-9.78085e-03	
1	1.023293e+00	-9.73145e-03	
2	1.047129e+00	-9.68428e-03	
3	1.071519e+00	-9.63922e-03	
4	1.096478e+00	-9.59619e-03	
5	1.122018e+00	-9.55510e-03	
6	1.148154e+00	-9.51586e-03	
7	1.174898e+00	-9.47838e-03	
8	1.202264e+00	-9.44259e-03	
9	1.230269e+00	-9.40841e-03	
10	1.258925e+00	-9.37577e-03	
11	1.288250e+00	-9.34460e-03	
12	1.318257e+00	-9.31483e-03	
13	1.348963e+00	-9.28640e-03	
14	1.380384e+00	-9.25925e-03	
15	1.412538e+00	-9.23332e-03	
16	1.445440e+00	-9.20856e-03	
17	1.479108e+00	-9.18491e-03	
18	1.513561e+00	-9.16233e-03	
19	1.548817e+00	-9.14076e-03	
20	1.584893e+00	-9.12016e-03	
21	1.621810e+00	-9.10049e-03	
22	1.659587e+00	-9.08171e-03	
23	1.698244e+00	-9.06377e-03	
24	1.737801e+00	-9.04664e-03	
25	1.778279e+00	-9.03028e-03	
26	1.819701e+00	-9.01465e-03	
27	1.862087e+00	-8.99973e-03	
28	1.905461e+00	-8.98548e-03	
29	1.949845e+00	-8.97187e-03	
30	1.995262e+00	-8.95888e-03	
31	2.041738e+00	-8.94647e-03	
32	2.089296e+00	-8.93461e-03	
33	2.137962e+00	-8.92329e-03	
34	2.187762e+00	-8.91248e-03	
35	2.238721e+00	-8.90216e-03	
36	2.290868e+00	-8.89230e-03	
37	2.344229e+00	-8.88289e-03	
38	2.398833e+00	-8.87390e-03	
39	2.454709e+00	-8.86531e-03	
40	2.511886e+00	-8.85711e-03	
41	2.570396e+00	-8.84928e-03	
42	2.630268e+00	-8.84180e-03	
43	2.691535e+00	-8.83466e-03	
44	2.754229e+00	-8.82784e-03	
45	2.818383e+00	-8.82132e-03	
46	2.884032e+00	-8.81510e-03	
47	2.951209e+00	-8.80916e-03	
48	3.019952e+00	-8.80349e-03	
49	3.090295e+00	-8.79807e-03	
50	3.162278e+00	-8.79290e-03	
51	3.235937e+00	-8.78796e-03	
52	3.311311e+00	-8.78324e-03	
53	3.388442e+00	-8.77873e-03	
54	3.467369e+00	-8.77443e-03	

Index   frequency       vdb(out)        
--------------------------------------------------------------------------------
55	3.548134e+00	-8.77032e-03	
56	3.630781e+00	-8.76639e-03	
57	3.715352e+00	-8.76264e-03	
58	3.801894e+00	-8.75906e-03	
59	3.890451e+00	-8.75565e-03	
60	3.981072e+00	-8.75238e-03	
61	4.073803e+00	-8.74926e-03	
62	4.168694e+00	-8.74629e-03	
63	4.265795e+00	-8.74344e-03	
64	4.365158e+00	-8.74073e-03	
65	4.466836e+00	-8.73813e-03	
66	4.570882e+00	-8.73566e-03	
67	4.677351e+00	-8.73329e-03	
68	4.786301e+00	-8.73103e-03	
69	4.897788e+00	-8.72888e-03	
70	5.011872e+00	-8.72682e-03	
71	5.128614e+00	-8.72485e-03	
72	5.248075e+00	-8.72297e-03	
73	5.370318e+00	-8.72118e-03	
74	5.495409e+00	-8.71946e-03	
75	5.623413e+00	-8.71783e-03	
76	5.754399e+00	-8.71627e-03	
77	5.888437e+00	-8.71477e-03	
78	6.025596e+00	-8.71335e-03	
79	6.165950e+00	-8.71199e-03	
80	6.309573e+00	-8.71069e-03	
81	6.456542e+00	-8.70945e-03	
82	6.606934e+00	-8.70826e-03	
83	6.760830e+00	-8.70713e-03	
84	6.918310e+00	-8.70605e-03	
85	7.079458e+00	-8.70502e-03	
86	7.244360e+00	-8.70403e-03	
87	7.413102e+00	-8.70309e-03	
88	7.585776e+00	-8.70219e-03	
89	7.762471e+00	-8.70133e-03	
90	7.943282e+00	-8.70051e-03	
91	8.128305e+00	-8.69973e-03	
92	8.317638e+00	-8.69898e-03	
93	8.511380e+00	-8.69826e-03	
94	8.709636e+00	-8.69758e-03	
95	8.912509e+00	-8.69693e-03	
96	9.120108e+00	-8.69631e-03	
97	9.332543e+00	-8.69572e-03	
98	9.549926e+00	-8.69515e-03	
99	9.772372e+00	-8.69461e-03	
100	1.000000e+01	-8.69409e-03	
101	1.023293e+01	-8.69359e-03	
102	1.047129e+01	-8.69312e-03	
103	1.071519e+01	-8.69267e-03	
104	1.096478e+01	-8.69224e-03	
105	1.122018e+01	-8.69183e-03	
106	1.148154e+01	-8.69144e-03	
107	1.174898e+01	-8.69106e-03	
108	1.202264e+01	-8.69071e-03	
109	1.230269e+01	-8.69036e-03	
110	1.258925e+01	-8.69004e-03	
111	1.288250e+01	-8.68973e-03	
112	1.318257e+01	-8.68943e-03	

Index   frequency       vdb(out)        
--------------------------------------------------------------------------------
113	1.348963e+01	-8.68914e-03	
114	1.380384e+01	-8.68887e-03	
115	1.412538e+01	-8.68861e-03	
116	1.445440e+01	-8.68836e-03	
117	1.479108e+01	-8.68813e-03	
118	1.513561e+01	-8.68790e-03	
119	1.548817e+01	-8.68769e-03	
120	1.584893e+01	-8.68748e-03	
121	1.621810e+01	-8.68728e-03	
122	1.659587e+01	-8.68710e-03	
123	1.698244e+01	-8.68692e-03	
124	1.737801e+01	-8.68675e-03	
125	1.778279e+01	-8.68658e-03	
126	1.819701e+01	-8.68643e-03	
127	1.862087e+01	-8.68628e-03	
128	1.905461e+01	-8.68613e-03	
129	1.949845e+01	-8.68600e-03	
130	1.995262e+01	-8.68587e-03	
131	2.041738e+01	-8.68574e-03	
132	2.089296e+01	-8.68563e-03	
133	2.137962e+01	-8.68551e-03	
134	2.187762e+01	-8.68540e-03	
135	2.238721e+01	-8.68530e-03	
136	2.290868e+01	-8.68520e-03	
137	2.344229e+01	-8.68511e-03	
138	2.398833e+01	-8.68502e-03	
139	2.454709e+01	-8.68493e-03	
140	2.511886e+01	-8.68485e-03	
141	2.570396e+01	-8.68477e-03	
142	2.630268e+01	-8.68470e-03	
143	2.691535e+01	-8.68463e-03	
144	2.754229e+01	-8.68456e-03	
145	2.818383e+01	-8.68449e-03	
146	2.884032e+01	-8.68443e-03	
147	2.951209e+01	-8.68437e-03	
148	3.019952e+01	-8.68431e-03	
149	3.090295e+01	-8.68426e-03	
150	3.162278e+01	-8.68421e-03	
151	3.235937e+01	-8.68416e-03	
152	3.311311e+01	-8.68411e-03	
153	3.388442e+01	-8.68407e-03	
154	3.467369e+01	-8.68402e-03	
155	3.548134e+01	-8.68398e-03	
156	3.630781e+01	-8.68394e-03	
157	3.715352e+01	-8.68391e-03	
158	3.801894e+01	-8.68387e-03	
159	3.890451e+01	-8.68384e-03	
160	3.981072e+01	-8.68380e-03	
161	4.073803e+01	-8.68377e-03	
162	4.168694e+01	-8.68374e-03	
163	4.265795e+01	-8.68371e-03	
164	4.365158e+01	-8.68369e-03	
165	4.466836e+01	-8.68366e-03	
166	4.570882e+01	-8.68364e-03	
167	4.677351e+01	-8.68361e-03	
168	4.786301e+01	-8.68359e-03	
169	4.897788e+01	-8.68357e-03	
170	5.011872e+01	-8.68355e-03	

Index   frequency       vdb(out)        
--------------------------------------------------------------------------------
171	5.128614e+01	-8.68353e-03	
172	5.248075e+01	-8.68351e-03	
173	5.370318e+01	-8.68349e-03	
174	5.495409e+01	-8.68347e-03	
175	5.623413e+01	-8.68346e-03	
176	5.754399e+01	-8.68344e-03	
177	5.888437e+01	-8.68343e-03	
178	6.025596e+01	-8.68341e-03	
179	6.165950e+01	-8.68340e-03	
180	6.309573e+01	-8.68339e-03	
181	6.456542e+01	-8.68337e-03	
182	6.606934e+01	-8.68336e-03	
183	6.760830e+01	-8.68335e-03	
184	6.918310e+01	-8.68334e-03	
185	7.079458e+01	-8.68333e-03	
186	7.244360e+01	-8.68332e-03	
187	7.413102e+01	-8.68331e-03	
188	7.585776e+01	-8.68330e-03	
189	7.762471e+01	-8.68329e-03	
190	7.943282e+01	-8.68328e-03	
191	8.128305e+01	-8.68328e-03	
192	8.317638e+01	-8.68327e-03	
193	8.511380e+01	-8.68326e-03	
194	8.709636e+01	-8.68325e-03	
195	8.912509e+01	-8.68325e-03	
196	9.120108e+01	-8.68324e-03	
197	9.332543e+01	-8.68324e-03	
198	9.549926e+01	-8.68323e-03	
199	9.772372e+01	-8.68322e-03	
200	1.000000e+02	-8.68322e-03	
201	1.023293e+02	-8.68321e-03	
202	1.047129e+02	-8.68321e-03	
203	1.071519e+02	-8.68321e-03	
204	1.096478e+02	-8.68320e-03	
205	1.122018e+02	-8.68320e-03	
206	1.148154e+02	-8.68319e-03	
207	1.174898e+02	-8.68319e-03	
208	1.202264e+02	-8.68319e-03	
209	1.230269e+02	-8.68318e-03	
210	1.258925e+02	-8.68318e-03	
211	1.288250e+02	-8.68318e-03	
212	1.318257e+02	-8.68317e-03	
213	1.348963e+02	-8.68317e-03	
214	1.380384e+02	-8.68317e-03	
215	1.412538e+02	-8.68316e-03	
216	1.445440e+02	-8.68316e-03	
217	1.479108e+02	-8.68316e-03	
218	1.513561e+02	-8.68316e-03	
219	1.548817e+02	-8.68316e-03	
220	1.584893e+02	-8.68315e-03	
221	1.621810e+02	-8.68315e-03	
222	1.659587e+02	-8.68315e-03	
223	1.698244e+02	-8.68315e-03	
224	1.737801e+02	-8.68315e-03	
225	1.778279e+02	-8.68314e-03	
226	1.819701e+02	-8.68314e-03	
227	1.862087e+02	-8.68314e-03	
228	1.905461e+02	-8.68314e-03	

Index   frequency       vdb(out)        
--------------------------------------------------------------------------------
229	1.949845e+02	-8.68314e-03	
230	1.995262e+02	-8.68314e-03	
231	2.041738e+02	-8.68314e-03	
232	2.089296e+02	-8.68313e-03	
233	2.137962e+02	-8.68313e-03	
234	2.187762e+02	-8.68313e-03	
235	2.238721e+02	-8.68313e-03	
236	2.290868e+02	-8.68313e-03	
237	2.344229e+02	-8.68313e-03	
238	2.398833e+02	-8.68313e-03	
239	2.454709e+02	-8.68313e-03	
240	2.511886e+02	-8.68313e-03	
241	2.570396e+02	-8.68313e-03	
242	2.630268e+02	-8.68313e-03	
243	2.691535e+02	-8.68312e-03	
244	2.754229e+02	-8.68312e-03	
245	2.818383e+02	-8.68312e-03	
246	2.884032e+02	-8.68312e-03	
247	2.951209e+02	-8.68312e-03	
248	3.019952e+02	-8.68312e-03	
249	3.090295e+02	-8.68312e-03	
250	3.162278e+02	-8.68312e-03	
251	3.235937e+02	-8.68312e-03	
252	3.311311e+02	-8.68312e-03	
253	3.388442e+02	-8.68312e-03	
254	3.467369e+02	-8.68312e-03	
255	3.548134e+02	-8.68312e-03	
256	3.630781e+02	-8.68312e-03	
257	3.715352e+02	-8.68312e-03	
258	3.801894e+02	-8.68312e-03	
259	3.890451e+02	-8.68312e-03	
260	3.981072e+02	-8.68312e-03	
261	4.073803e+02	-8.68312e-03	
262	4.168694e+02	-8.68312e-03	
263	4.265795e+02	-8.68312e-03	
264	4.365158e+02	-8.68312e-03	
265	4.466836e+02	-8.68311e-03	
266	4.570882e+02	-8.68311e-03	
267	4.677351e+02	-8.68311e-03	
268	4.786301e+02	-8.68311e-03	
269	4.897788e+02	-8.68311e-03	
270	5.011872e+02	-8.68311e-03	
271	5.128614e+02	-8.68311e-03	
272	5.248075e+02	-8.68311e-03	
273	5.370318e+02	-8.68311e-03	
274	5.495409e+02	-8.68311e-03	
275	5.623413e+02	-8.68311e-03	
276	5.754399e+02	-8.68311e-03	
277	5.888437e+02	-8.68311e-03	
278	6.025596e+02	-8.68311e-03	
279	6.165950e+02	-8.68311e-03	
280	6.309573e+02	-8.68311e-03	
281	6.456542e+02	-8.68311e-03	
282	6.606934e+02	-8.68311e-03	
283	6.760830e+02	-8.68311e-03	
284	6.918310e+02	-8.68311e-03	
285	7.079458e+02	-8.68311e-03	
286	7.244360e+02	-8.68311e-03	

Index   frequency       vdb(out)        
--------------------------------------------------------------------------------
287	7.413102e+02	-8.68311e-03	
288	7.585776e+02	-8.68311e-03	
289	7.762471e+02	-8.68311e-03	
290	7.943282e+02	-8.68311e-03	
291	8.128305e+02	-8.68311e-03	
292	8.317638e+02	-8.68311e-03	
293	8.511380e+02	-8.68311e-03	
294	8.709636e+02	-8.68311e-03	
295	8.912509e+02	-8.68311e-03	
296	9.120108e+02	-8.68311e-03	
297	9.332543e+02	-8.68311e-03	
298	9.549926e+02	-8.68311e-03	
299	9.772372e+02	-8.68311e-03	
300	1.000000e+03	-8.68311e-03	
301	1.023293e+03	-8.68311e-03	
302	1.047129e+03	-8.68311e-03	
303	1.071519e+03	-8.68311e-03	
304	1.096478e+03	-8.68311e-03	
305	1.122018e+03	-8.68311e-03	
306	1.148154e+03	-8.68311e-03	
307	1.174898e+03	-8.68311e-03	
308	1.202264e+03	-8.68311e-03	
309	1.230269e+03	-8.68311e-03	
310	1.258925e+03	-8.68311e-03	
311	1.288250e+03	-8.68311e-03	
312	1.318257e+03	-8.68311e-03	
313	1.348963e+03	-8.68311e-03	
314	1.380384e+03	-8.68311e-03	
315	1.412538e+03	-8.68310e-03	
316	1.445440e+03	-8.68310e-03	
317	1.479108e+03	-8.68310e-03	
318	1.513561e+03	-8.68310e-03	
319	1.548817e+03	-8.68310e-03	
320	1.584893e+03	-8.68310e-03	
321	1.621810e+03	-8.68310e-03	
322	1.659587e+03	-8.68310e-03	
323	1.698244e+03	-8.68310e-03	
324	1.737801e+03	-8.68310e-03	
325	1.778279e+03	-8.68310e-03	
326	1.819701e+03	-8.68310e-03	
327	1.862087e+03	-8.68310e-03	
328	1.905461e+03	-8.68310e-03	
329	1.949845e+03	-8.68310e-03	
330	1.995262e+03	-8.68310e-03	
331	2.041738e+03	-8.68310e-03	
332	2.089296e+03	-8.68310e-03	
333	2.137962e+03	-8.68310e-03	
334	2.187762e+03	-8.68310e-03	
335	2.238721e+03	-8.68310e-03	
336	2.290868e+03	-8.68310e-03	
337	2.344229e+03	-8.68309e-03	
338	2.398833e+03	-8.68309e-03	
339	2.454709e+03	-8.68309e-03	
340	2.511886e+03	-8.68309e-03	
341	2.570396e+03	-8.68309e-03	
342	2.630268e+03	-8.68309e-03	
343	2.691535e+03	-8.68309e-03	
344	2.754229e+03	-8.68309e-03	

Index   frequency       vdb(out)        
--------------------------------------------------------------------------------
345	2.818383e+03	-8.68309e-03	
346	2.884032e+03	-8.68309e-03	
347	2.951209e+03	-8.68309e-03	
348	3.019952e+03	-8.68308e-03	
349	3.090295e+03	-8.68308e-03	
350	3.162278e+03	-8.68308e-03	
351	3.235937e+03	-8.68308e-03	
352	3.311311e+03	-8.68308e-03	
353	3.388442e+03	-8.68308e-03	
354	3.467369e+03	-8.68308e-03	
355	3.548134e+03	-8.68307e-03	
356	3.630781e+03	-8.68307e-03	
357	3.715352e+03	-8.68307e-03	
358	3.801894e+03	-8.68307e-03	
359	3.890451e+03	-8.68307e-03	
360	3.981072e+03	-8.68306e-03	
361	4.073803e+03	-8.68306e-03	
362	4.168694e+03	-8.68306e-03	
363	4.265795e+03	-8.68306e-03	
364	4.365158e+03	-8.68306e-03	
365	4.466836e+03	-8.68305e-03	
366	4.570882e+03	-8.68305e-03	
367	4.677351e+03	-8.68305e-03	
368	4.786301e+03	-8.68304e-03	
369	4.897788e+03	-8.68304e-03	
370	5.011872e+03	-8.68304e-03	
371	5.128614e+03	-8.68303e-03	
372	5.248075e+03	-8.68303e-03	
373	5.370318e+03	-8.68303e-03	
374	5.495409e+03	-8.68302e-03	
375	5.623413e+03	-8.68302e-03	
376	5.754399e+03	-8.68301e-03	
377	5.888437e+03	-8.68301e-03	
378	6.025596e+03	-8.68301e-03	
379	6.165950e+03	-8.68300e-03	
380	6.309573e+03	-8.68300e-03	
381	6.456542e+03	-8.68299e-03	
382	6.606934e+03	-8.68298e-03	
383	6.760830e+03	-8.68298e-03	
384	6.918310e+03	-8.68297e-03	
385	7.079458e+03	-8.68297e-03	
386	7.244360e+03	-8.68296e-03	
387	7.413102e+03	-8.68295e-03	
388	7.585776e+03	-8.68294e-03	
389	7.762471e+03	-8.68294e-03	
390	7.943282e+03	-8.68293e-03	
391	8.128305e+03	-8.68292e-03	
392	8.317638e+03	-8.68291e-03	
393	8.511380e+03	-8.68290e-03	
394	8.709636e+03	-8.68289e-03	
395	8.912509e+03	-8.68288e-03	
396	9.120108e+03	-8.68287e-03	
397	9.332543e+03	-8.68286e-03	
398	9.549926e+03	-8.68285e-03	
399	9.772372e+03	-8.68284e-03	
400	1.000000e+04	-8.68282e-03	
401	1.023293e+04	-8.68281e-03	
402	1.047129e+04	-8.68280e-03	

Index   frequency       vdb(out)        
--------------------------------------------------------------------------------
403	1.071519e+04	-8.68278e-03	
404	1.096478e+04	-8.68276e-03	
405	1.122018e+04	-8.68275e-03	
406	1.148154e+04	-8.68273e-03	
407	1.174898e+04	-8.68271e-03	
408	1.202264e+04	-8.68269e-03	
409	1.230269e+04	-8.68268e-03	
410	1.258925e+04	-8.68265e-03	
411	1.288250e+04	-8.68263e-03	
412	1.318257e+04	-8.68261e-03	
413	1.348963e+04	-8.68259e-03	
414	1.380384e+04	-8.68256e-03	
415	1.412538e+04	-8.68254e-03	
416	1.445440e+04	-8.68251e-03	
417	1.479108e+04	-8.68248e-03	
418	1.513561e+04	-8.68245e-03	
419	1.548817e+04	-8.68242e-03	
420	1.584893e+04	-8.68239e-03	
421	1.621810e+04	-8.68235e-03	
422	1.659587e+04	-8.68232e-03	
423	1.698244e+04	-8.68228e-03	
424	1.737801e+04	-8.68224e-03	
425	1.778279e+04	-8.68220e-03	
426	1.819701e+04	-8.68216e-03	
427	1.862087e+04	-8.68211e-03	
428	1.905461e+04	-8.68207e-03	
429	1.949845e+04	-8.68202e-03	
430	1.995262e+04	-8.68197e-03	
431	2.041738e+04	-8.68191e-03	
432	2.089296e+04	-8.68186e-03	
433	2.137962e+04	-8.68180e-03	
434	2.187762e+04	-8.68174e-03	
435	2.238721e+04	-8.68167e-03	
436	2.290868e+04	-8.68160e-03	
437	2.344229e+04	-8.68153e-03	
438	2.398833e+04	-8.68146e-03	
439	2.454709e+04	-8.68138e-03	
440	2.511886e+04	-8.68130e-03	
441	2.570396e+04	-8.68121e-03	
442	2.630268e+04	-8.68112e-03	
443	2.691535e+04	-8.68103e-03	
444	2.754229e+04	-8.68093e-03	
445	2.818383e+04	-8.68083e-03	
446	2.884032e+04	-8.68072e-03	
447	2.951209e+04	-8.68061e-03	
448	3.019952e+04	-8.68049e-03	
449	3.090295e+04	-8.68037e-03	
450	3.162278e+04	-8.68024e-03	
451	3.235937e+04	-8.68010e-03	
452	3.311311e+04	-8.67996e-03	
453	3.388442e+04	-8.67981e-03	
454	3.467369e+04	-8.67966e-03	
455	3.548134e+04	-8.67950e-03	
456	3.630781e+04	-8.67932e-03	
457	3.715352e+04	-8.67915e-03	
458	3.801894e+04	-8.67896e-03	
459	3.890451e+04	-8.67876e-03	
460	3.981072e+04	-8.67856e-03	

Index   frequency       vdb(out)        
--------------------------------------------------------------------------------
461	4.073803e+04	-8.67834e-03	
462	4.168694e+04	-8.67812e-03	
463	4.265795e+04	-8.67789e-03	
464	4.365158e+04	-8.67764e-03	
465	4.466836e+04	-8.67738e-03	
466	4.570882e+04	-8.67711e-03	
467	4.677351e+04	-8.67683e-03	
468	4.786301e+04	-8.67653e-03	
469	4.897788e+04	-8.67622e-03	
470	5.011872e+04	-8.67590e-03	
471	5.128614e+04	-8.67556e-03	
472	5.248075e+04	-8.67520e-03	
473	5.370318e+04	-8.67483e-03	
474	5.495409e+04	-8.67444e-03	
475	5.623413e+04	-8.67403e-03	
476	5.754399e+04	-8.67360e-03	
477	5.888437e+04	-8.67315e-03	
478	6.025596e+04	-8.67269e-03	
479	6.165950e+04	-8.67219e-03	
480	6.309573e+04	-8.67168e-03	
481	6.456542e+04	-8.67114e-03	
482	6.606934e+04	-8.67058e-03	
483	6.760830e+04	-8.66999e-03	
484	6.918310e+04	-8.66937e-03	
485	7.079458e+04	-8.66872e-03	
486	7.244360e+04	-8.66804e-03	
487	7.413102e+04	-8.66733e-03	
488	7.585776e+04	-8.66659e-03	
489	7.762471e+04	-8.66581e-03	
490	7.943282e+04	-8.66499e-03	
491	8.128305e+04	-8.66414e-03	
492	8.317638e+04	-8.66325e-03	
493	8.511380e+04	-8.66231e-03	
494	8.709636e+04	-8.66133e-03	
495	8.912509e+04	-8.66030e-03	
496	9.120108e+04	-8.65923e-03	
497	9.332543e+04	-8.65810e-03	
498	9.549926e+04	-8.65692e-03	
499	9.772372e+04	-8.65569e-03	
500	1.000000e+05	-8.65440e-03	
501	1.023293e+05	-8.65304e-03	
502	1.047129e+05	-8.65163e-03	
503	1.071519e+05	-8.65014e-03	
504	1.096478e+05	-8.64859e-03	
505	1.122018e+05	-8.64696e-03	
506	1.148154e+05	-8.64526e-03	
507	1.174898e+05	-8.64348e-03	
508	1.202264e+05	-8.64161e-03	
509	1.230269e+05	-8.63965e-03	
510	1.258925e+05	-8.63760e-03	
511	1.288250e+05	-8.63546e-03	
512	1.318257e+05	-8.63321e-03	
513	1.348963e+05	-8.63086e-03	
514	1.380384e+05	-8.62840e-03	
515	1.412538e+05	-8.62582e-03	
516	1.445440e+05	-8.62312e-03	
517	1.479108e+05	-8.62029e-03	
518	1.513561e+05	-8.61733e-03	

Index   frequency       vdb(out)        
--------------------------------------------------------------------------------
519	1.548817e+05	-8.61423e-03	
520	1.584893e+05	-8.61099e-03	
521	1.621810e+05	-8.60759e-03	
522	1.659587e+05	-8.60403e-03	
523	1.698244e+05	-8.60030e-03	
524	1.737801e+05	-8.59640e-03	
525	1.778279e+05	-8.59231e-03	
526	1.819701e+05	-8.58803e-03	
527	1.862087e+05	-8.58355e-03	
528	1.905461e+05	-8.57886e-03	
529	1.949845e+05	-8.57395e-03	
530	1.995262e+05	-8.56880e-03	
531	2.041738e+05	-8.56342e-03	
532	2.089296e+05	-8.55778e-03	
533	2.137962e+05	-8.55187e-03	
534	2.187762e+05	-8.54568e-03	
535	2.238721e+05	-8.53921e-03	
536	2.290868e+05	-8.53243e-03	
537	2.344229e+05	-8.52532e-03	
538	2.398833e+05	-8.51789e-03	
539	2.454709e+05	-8.51010e-03	
540	2.511886e+05	-8.50195e-03	
541	2.570396e+05	-8.49341e-03	
542	2.630268e+05	-8.48447e-03	
543	2.691535e+05	-8.47511e-03	
544	2.754229e+05	-8.46531e-03	
545	2.818383e+05	-8.45504e-03	
546	2.884032e+05	-8.44429e-03	
547	2.951209e+05	-8.43304e-03	
548	3.019952e+05	-8.42125e-03	
549	3.090295e+05	-8.40891e-03	
550	3.162278e+05	-8.39599e-03	
551	3.235937e+05	-8.38246e-03	
552	3.311311e+05	-8.36829e-03	
553	3.388442e+05	-8.35345e-03	
554	3.467369e+05	-8.33791e-03	
555	3.548134e+05	-8.32165e-03	
556	3.630781e+05	-8.30461e-03	
557	3.715352e+05	-8.28677e-03	
558	3.801894e+05	-8.26809e-03	
559	3.890451e+05	-8.24853e-03	
560	3.981072e+05	-8.22805e-03	
561	4.073803e+05	-8.20661e-03	
562	4.168694e+05	-8.18415e-03	
563	4.265795e+05	-8.16064e-03	
564	4.365158e+05	-8.13601e-03	
565	4.466836e+05	-8.11023e-03	
566	4.570882e+05	-8.08323e-03	
567	4.677351e+05	-8.05496e-03	
568	4.786301e+05	-8.02536e-03	
569	4.897788e+05	-7.99436e-03	
570	5.011872e+05	-7.96190e-03	
571	5.128614e+05	-7.92791e-03	
572	5.248075e+05	-7.89232e-03	
573	5.370318e+05	-7.85505e-03	
574	5.495409e+05	-7.81602e-03	
575	5.623413e+05	-7.77516e-03	
576	5.754399e+05	-7.73237e-03	

Index   frequency       vdb(out)        
--------------------------------------------------------------------------------
577	5.888437e+05	-7.68756e-03	
578	6.025596e+05	-7.64064e-03	
579	6.165950e+05	-7.59151e-03	
580	6.309573e+05	-7.54007e-03	
581	6.456542e+05	-7.48620e-03	
582	6.606934e+05	-7.42979e-03	
583	6.760830e+05	-7.37073e-03	
584	6.918310e+05	-7.30888e-03	
585	7.079458e+05	-7.24411e-03	
586	7.244360e+05	-7.17630e-03	
587	7.413102e+05	-7.10528e-03	
588	7.585776e+05	-7.03093e-03	
589	7.762471e+05	-6.95306e-03	
590	7.943282e+05	-6.87153e-03	
591	8.128305e+05	-6.78615e-03	
592	8.317638e+05	-6.69676e-03	
593	8.511380e+05	-6.60314e-03	
594	8.709636e+05	-6.50512e-03	
595	8.912509e+05	-6.40248e-03	
596	9.120108e+05	-6.29500e-03	
597	9.332543e+05	-6.18245e-03	
598	9.549926e+05	-6.06461e-03	
599	9.772372e+05	-5.94120e-03	
600	1.000000e+06	-5.81199e-03	
601	1.023293e+06	-5.67668e-03	
602	1.047129e+06	-5.53500e-03	
603	1.071519e+06	-5.38664e-03	
604	1.096478e+06	-5.23129e-03	
605	1.122018e+06	-5.06861e-03	
606	1.148154e+06	-4.89828e-03	
607	1.174898e+06	-4.71991e-03	
608	1.202264e+06	-4.53314e-03	
609	1.230269e+06	-4.33757e-03	
610	1.258925e+06	-4.13278e-03	
611	1.288250e+06	-3.91835e-03	
612	1.318257e+06	-3.69381e-03	
613	1.348963e+06	-3.45868e-03	
614	1.380384e+06	-3.21248e-03	
615	1.412538e+06	-2.95468e-03	
616	1.445440e+06	-2.68472e-03	
617	1.479108e+06	-2.40205e-03	
618	1.513561e+06	-2.10606e-03	
619	1.548817e+06	-1.79612e-03	
620	1.584893e+06	-1.47158e-03	
621	1.621810e+06	-1.13174e-03	
622	1.659587e+06	-7.75892e-04	
623	1.698244e+06	-4.03276e-04	
624	1.737801e+06	-1.31033e-05	
625	1.778279e+06	3.954537e-04	
626	1.819701e+06	8.232608e-04	
627	1.862087e+06	1.271225e-03	
628	1.905461e+06	1.740295e-03	
629	1.949845e+06	2.231465e-03	
630	1.995262e+06	2.745777e-03	
631	2.041738e+06	3.284321e-03	
632	2.089296e+06	3.848237e-03	
633	2.137962e+06	4.438720e-03	
634	2.187762e+06	5.057023e-03	

Index   frequency       vdb(out)        
--------------------------------------------------------------------------------
635	2.238721e+06	5.704454e-03	
636	2.290868e+06	6.382386e-03	
637	2.344229e+06	7.092255e-03	
638	2.398833e+06	7.835565e-03	
639	2.454709e+06	8.613890e-03	
640	2.511886e+06	9.428880e-03	
641	2.570396e+06	1.028226e-02	
642	2.630268e+06	1.117584e-02	
643	2.691535e+06	1.211150e-02	
644	2.754229e+06	1.309124e-02	
645	2.818383e+06	1.411713e-02	
646	2.884032e+06	1.519133e-02	
647	2.951209e+06	1.631613e-02	
648	3.019952e+06	1.749390e-02	
649	3.090295e+06	1.872714e-02	
650	3.162278e+06	2.001845e-02	
651	3.235937e+06	2.137057e-02	
652	3.311311e+06	2.278636e-02	
653	3.388442e+06	2.426882e-02	
654	3.467369e+06	2.582108e-02	
655	3.548134e+06	2.744642e-02	
656	3.630781e+06	2.914828e-02	
657	3.715352e+06	3.093027e-02	
658	3.801894e+06	3.279614e-02	
659	3.890451e+06	3.474984e-02	
660	3.981072e+06	3.679550e-02	
661	4.073803e+06	3.893745e-02	
662	4.168694e+06	4.118020e-02	
663	4.265795e+06	4.352850e-02	
664	4.365158e+06	4.598730e-02	
665	4.466836e+06	4.856179e-02	
666	4.570882e+06	5.125741e-02	
667	4.677351e+06	5.407984e-02	
668	4.786301e+06	5.703503e-02	
669	4.897788e+06	6.012923e-02	
670	5.011872e+06	6.336894e-02	
671	5.128614e+06	6.676100e-02	
672	5.248075e+06	7.031255e-02	
673	5.370318e+06	7.403107e-02	
674	5.495409e+06	7.792438e-02	
675	5.623413e+06	8.200067e-02	
676	5.754399e+06	8.626852e-02	
677	5.888437e+06	9.073690e-02	
678	6.025596e+06	9.541518e-02	
679	6.165950e+06	1.003132e-01	
680	6.309573e+06	1.054412e-01	
681	6.456542e+06	1.108100e-01	
682	6.606934e+06	1.164307e-01	
683	6.760830e+06	1.223153e-01	
684	6.918310e+06	1.284759e-01	
685	7.079458e+06	1.349254e-01	
686	7.244360e+06	1.416774e-01	
687	7.413102e+06	1.487458e-01	
688	7.585776e+06	1.561455e-01	
689	7.762471e+06	1.638917e-01	
690	7.943282e+06	1.720007e-01	
691	8.128305e+06	1.804892e-01	
692	8.317638e+06	1.893749e-01	

Index   frequency       vdb(out)        
--------------------------------------------------------------------------------
693	8.511380e+06	1.986760e-01	
694	8.709636e+06	2.084119e-01	
695	8.912509e+06	2.186025e-01	
696	9.120108e+06	2.292689e-01	
697	9.332543e+06	2.404329e-01	
698	9.549926e+06	2.521174e-01	
699	9.772372e+06	2.643463e-01	
700	1.000000e+07	2.771445e-01	
701	1.023293e+07	2.905379e-01	
702	1.047129e+07	3.045536e-01	
703	1.071519e+07	3.192200e-01	
704	1.096478e+07	3.345664e-01	
705	1.122018e+07	3.506236e-01	
706	1.148154e+07	3.674235e-01	
707	1.174898e+07	3.849993e-01	
708	1.202264e+07	4.033857e-01	
709	1.230269e+07	4.226186e-01	
710	1.258925e+07	4.427354e-01	
711	1.288250e+07	4.637748e-01	
712	1.318257e+07	4.857770e-01	
713	1.348963e+07	5.087837e-01	
714	1.380384e+07	5.328381e-01	
715	1.412538e+07	5.579846e-01	
716	1.445440e+07	5.842692e-01	
717	1.479108e+07	6.117393e-01	
718	1.513561e+07	6.404436e-01	
719	1.548817e+07	6.704321e-01	
720	1.584893e+07	7.017559e-01	
721	1.621810e+07	7.344673e-01	
722	1.659587e+07	7.686194e-01	
723	1.698244e+07	8.042659e-01	
724	1.737801e+07	8.414611e-01	
725	1.778279e+07	8.802595e-01	
726	1.819701e+07	9.207152e-01	
727	1.862087e+07	9.628817e-01	
728	1.905461e+07	1.006811e+00	
729	1.949845e+07	1.052554e+00	
730	1.995262e+07	1.100159e+00	
731	2.041738e+07	1.149668e+00	
732	2.089296e+07	1.201123e+00	
733	2.137962e+07	1.254556e+00	
734	2.187762e+07	1.309992e+00	
735	2.238721e+07	1.367450e+00	
736	2.290868e+07	1.426932e+00	
737	2.344229e+07	1.488430e+00	
738	2.398833e+07	1.551917e+00	
739	2.454709e+07	1.617346e+00	
740	2.511886e+07	1.684644e+00	
741	2.570396e+07	1.753710e+00	
742	2.630268e+07	1.824406e+00	
743	2.691535e+07	1.896555e+00	
744	2.754229e+07	1.969930e+00	
745	2.818383e+07	2.044247e+00	
746	2.884032e+07	2.119155e+00	
747	2.951209e+07	2.194229e+00	
748	3.019952e+07	2.268955e+00	
749	3.090295e+07	2.342720e+00	
750	3.162278e+07	2.414797e+00	

Index   frequency       vdb(out)        
--------------------------------------------------------------------------------
751	3.235937e+07	2.484336e+00	
752	3.311311e+07	2.550348e+00	
753	3.388442e+07	2.611697e+00	
754	3.467369e+07	2.667090e+00	
755	3.548134e+07	2.715072e+00	
756	3.630781e+07	2.754028e+00	
757	3.715352e+07	2.782192e+00	
758	3.801894e+07	2.797667e+00	
759	3.890451e+07	2.798455e+00	
760	3.981072e+07	2.782499e+00	
761	4.073803e+07	2.747742e+00	
762	4.168694e+07	2.692196e+00	
763	4.265795e+07	2.614018e+00	
764	4.365158e+07	2.511597e+00	
765	4.466836e+07	2.383630e+00	
766	4.570882e+07	2.229193e+00	
767	4.677351e+07	2.047799e+00	
768	4.786301e+07	1.839421e+00	
769	4.897788e+07	1.604500e+00	
770	5.011872e+07	1.343919e+00	
771	5.128614e+07	1.058955e+00	
772	5.248075e+07	7.512103e-01	
773	5.370318e+07	4.225354e-01	
774	5.495409e+07	7.494544e-02	
775	5.623413e+07	-2.89459e-01	
776	5.754399e+07	-6.68565e-01	
777	5.888437e+07	-1.06030e+00	
778	6.025596e+07	-1.46270e+00	
779	6.165950e+07	-1.87391e+00	
780	6.309573e+07	-2.29223e+00	
781	6.456542e+07	-2.71611e+00	
782	6.606934e+07	-3.14418e+00	
783	6.760830e+07	-3.57521e+00	
784	6.918310e+07	-4.00813e+00	
785	7.079458e+07	-4.44200e+00	
786	7.244360e+07	-4.87603e+00	
787	7.413102e+07	-5.30953e+00	
788	7.585776e+07	-5.74189e+00	
789	7.762471e+07	-6.17264e+00	
790	7.943282e+07	-6.60135e+00	
791	8.128305e+07	-7.02767e+00	
792	8.317638e+07	-7.45132e+00	
793	8.511380e+07	-7.87204e+00	
794	8.709636e+07	-8.28966e+00	
795	8.912509e+07	-8.70400e+00	
796	9.120108e+07	-9.11494e+00	
797	9.332543e+07	-9.52238e+00	
798	9.549926e+07	-9.92624e+00	
799	9.772372e+07	-1.03265e+01	
800	1.000000e+08	-1.07230e+01	
801	1.023293e+08	-1.11158e+01	
802	1.047129e+08	-1.15049e+01	
803	1.071519e+08	-1.18902e+01	
804	1.096478e+08	-1.22718e+01	
805	1.122018e+08	-1.26497e+01	
806	1.148154e+08	-1.30238e+01	
807	1.174898e+08	-1.33942e+01	
808	1.202264e+08	-1.37608e+01	

Index   frequency       vdb(out)        
--------------------------------------------------------------------------------
809	1.230269e+08	-1.41238e+01	
810	1.258925e+08	-1.44832e+01	
811	1.288250e+08	-1.48388e+01	
812	1.318257e+08	-1.51909e+01	
813	1.348963e+08	-1.55394e+01	
814	1.380384e+08	-1.58844e+01	
815	1.412538e+08	-1.62258e+01	
816	1.445440e+08	-1.65637e+01	
817	1.479108e+08	-1.68983e+01	
                            .filter_single_ended.cir
                            AC Analysis  Mon Feb 15 02:12:33  2021
--------------------------------------------------------------------------------
Index   frequency       cph(out)        
--------------------------------------------------------------------------------
0	1.000000e+00	-3.12569e+00	
1	1.023293e+00	-3.12606e+00	
2	1.047129e+00	-3.12641e+00	
3	1.071519e+00	-3.12676e+00	
4	1.096478e+00	-3.12709e+00	
5	1.122018e+00	-3.12742e+00	
6	1.148154e+00	-3.12775e+00	
7	1.174898e+00	-3.12806e+00	
8	1.202264e+00	-3.12837e+00	
9	1.230269e+00	-3.12867e+00	
10	1.258925e+00	-3.12896e+00	
11	1.288250e+00	-3.12925e+00	
12	1.318257e+00	-3.12953e+00	
13	1.348963e+00	-3.12981e+00	
14	1.380384e+00	-3.13007e+00	
15	1.412538e+00	-3.13034e+00	
16	1.445440e+00	-3.13059e+00	
17	1.479108e+00	-3.13084e+00	
18	1.513561e+00	-3.13109e+00	
19	1.548817e+00	-3.13133e+00	
20	1.584893e+00	-3.13156e+00	
21	1.621810e+00	-3.13179e+00	
22	1.659587e+00	-3.13201e+00	
23	1.698244e+00	-3.13223e+00	
24	1.737801e+00	-3.13244e+00	
25	1.778279e+00	-3.13265e+00	
26	1.819701e+00	-3.13286e+00	
27	1.862087e+00	-3.13305e+00	
28	1.905461e+00	-3.13325e+00	
29	1.949845e+00	-3.13344e+00	
30	1.995262e+00	-3.13362e+00	
31	2.041738e+00	-3.13381e+00	
32	2.089296e+00	-3.13398e+00	
33	2.137962e+00	-3.13416e+00	
34	2.187762e+00	-3.13433e+00	
35	2.238721e+00	-3.13449e+00	
36	2.290868e+00	-3.13465e+00	
37	2.344229e+00	-3.13481e+00	
38	2.398833e+00	-3.13496e+00	
39	2.454709e+00	-3.13512e+00	
40	2.511886e+00	-3.13526e+00	
41	2.570396e+00	-3.13541e+00	
42	2.630268e+00	-3.13555e+00	
43	2.691535e+00	-3.13569e+00	
44	2.754229e+00	-3.13582e+00	
45	2.818383e+00	-3.13595e+00	
46	2.884032e+00	-3.13608e+00	
47	2.951209e+00	-3.13621e+00	
48	3.019952e+00	-3.13633e+00	
49	3.090295e+00	-3.13645e+00	
50	3.162278e+00	-3.13656e+00	
51	3.235937e+00	-3.13668e+00	
52	3.311311e+00	-3.13679e+00	
53	3.388442e+00	-3.13690e+00	
54	3.467369e+00	-3.13701e+00	

Index   frequency       cph(out)        
--------------------------------------------------------------------------------
55	3.548134e+00	-3.13711e+00	
56	3.630781e+00	-3.13721e+00	
57	3.715352e+00	-3.13731e+00	
58	3.801894e+00	-3.13741e+00	
59	3.890451e+00	-3.13751e+00	
60	3.981072e+00	-3.13760e+00	
61	4.073803e+00	-3.13769e+00	
62	4.168694e+00	-3.13778e+00	
63	4.265795e+00	-3.13787e+00	
64	4.365158e+00	-3.13795e+00	
65	4.466836e+00	-3.13803e+00	
66	4.570882e+00	-3.13811e+00	
67	4.677351e+00	-3.13819e+00	
68	4.786301e+00	-3.13827e+00	
69	4.897788e+00	-3.13835e+00	
70	5.011872e+00	-3.13842e+00	
71	5.128614e+00	-3.13849e+00	
72	5.248075e+00	-3.13856e+00	
73	5.370318e+00	-3.13863e+00	
74	5.495409e+00	-3.13870e+00	
75	5.623413e+00	-3.13877e+00	
76	5.754399e+00	-3.13883e+00	
77	5.888437e+00	-3.13889e+00	
78	6.025596e+00	-3.13895e+00	
79	6.165950e+00	-3.13901e+00	
80	6.309573e+00	-3.13907e+00	
81	6.456542e+00	-3.13913e+00	
82	6.606934e+00	-3.13919e+00	
83	6.760830e+00	-3.13924e+00	
84	6.918310e+00	-3.13929e+00	
85	7.079458e+00	-3.13935e+00	
86	7.244360e+00	-3.13940e+00	
87	7.413102e+00	-3.13945e+00	
88	7.585776e+00	-3.13950e+00	
89	7.762471e+00	-3.13954e+00	
90	7.943282e+00	-3.13959e+00	
91	8.128305e+00	-3.13964e+00	
92	8.317638e+00	-3.13968e+00	
93	8.511380e+00	-3.13972e+00	
94	8.709636e+00	-3.13977e+00	
95	8.912509e+00	-3.13981e+00	
96	9.120108e+00	-3.13985e+00	
97	9.332543e+00	-3.13989e+00	
98	9.549926e+00	-3.13993e+00	
99	9.772372e+00	-3.13997e+00	
100	1.000000e+01	-3.14000e+00	
101	1.023293e+01	-3.14004e+00	
102	1.047129e+01	-3.14007e+00	
103	1.071519e+01	-3.14011e+00	
104	1.096478e+01	-3.14014e+00	
105	1.122018e+01	-3.14018e+00	
106	1.148154e+01	-3.14021e+00	
107	1.174898e+01	-3.14024e+00	
108	1.202264e+01	-3.14027e+00	
109	1.230269e+01	-3.14030e+00	
110	1.258925e+01	-3.14033e+00	
111	1.288250e+01	-3.14036e+00	
112	1.318257e+01	-3.14039e+00	

Index   frequency       cph(out)        
--------------------------------------------------------------------------------
113	1.348963e+01	-3.14041e+00	
114	1.380384e+01	-3.14044e+00	
115	1.412538e+01	-3.14047e+00	
116	1.445440e+01	-3.14049e+00	
117	1.479108e+01	-3.14052e+00	
118	1.513561e+01	-3.14054e+00	
119	1.548817e+01	-3.14057e+00	
120	1.584893e+01	-3.14059e+00	
121	1.621810e+01	-3.14061e+00	
122	1.659587e+01	-3.14063e+00	
123	1.698244e+01	-3.14066e+00	
124	1.737801e+01	-3.14068e+00	
125	1.778279e+01	-3.14070e+00	
126	1.819701e+01	-3.14072e+00	
127	1.862087e+01	-3.14074e+00	
128	1.905461e+01	-3.14076e+00	
129	1.949845e+01	-3.14078e+00	
130	1.995262e+01	-3.14080e+00	
131	2.041738e+01	-3.14081e+00	
132	2.089296e+01	-3.14083e+00	
133	2.137962e+01	-3.14085e+00	
134	2.187762e+01	-3.14087e+00	
135	2.238721e+01	-3.14088e+00	
136	2.290868e+01	-3.14090e+00	
137	2.344229e+01	-3.14091e+00	
138	2.398833e+01	-3.14093e+00	
139	2.454709e+01	-3.14095e+00	
140	2.511886e+01	-3.14096e+00	
141	2.570396e+01	-3.14097e+00	
142	2.630268e+01	-3.14099e+00	
143	2.691535e+01	-3.14100e+00	
144	2.754229e+01	-3.14102e+00	
145	2.818383e+01	-3.14103e+00	
146	2.884032e+01	-3.14104e+00	
147	2.951209e+01	-3.14105e+00	
148	3.019952e+01	-3.14107e+00	
149	3.090295e+01	-3.14108e+00	
150	3.162278e+01	-3.14109e+00	
151	3.235937e+01	-3.14110e+00	
152	3.311311e+01	-3.14111e+00	
153	3.388442e+01	-3.14112e+00	
154	3.467369e+01	-3.14113e+00	
155	3.548134e+01	-3.14114e+00	
156	3.630781e+01	-3.14116e+00	
157	3.715352e+01	-3.14117e+00	
158	3.801894e+01	-3.14117e+00	
159	3.890451e+01	-3.14118e+00	
160	3.981072e+01	-3.14119e+00	
161	4.073803e+01	-3.14120e+00	
162	4.168694e+01	-3.14121e+00	
163	4.265795e+01	-3.14122e+00	
164	4.365158e+01	-3.14123e+00	
165	4.466836e+01	-3.14124e+00	
166	4.570882e+01	-3.14125e+00	
167	4.677351e+01	-3.14125e+00	
168	4.786301e+01	-3.14126e+00	
169	4.897788e+01	-3.14127e+00	
170	5.011872e+01	-3.14128e+00	

Index   frequency       cph(out)        
--------------------------------------------------------------------------------
171	5.128614e+01	-3.14128e+00	
172	5.248075e+01	-3.14129e+00	
173	5.370318e+01	-3.14130e+00	
174	5.495409e+01	-3.14130e+00	
175	5.623413e+01	-3.14131e+00	
176	5.754399e+01	-3.14132e+00	
177	5.888437e+01	-3.14132e+00	
178	6.025596e+01	-3.14133e+00	
179	6.165950e+01	-3.14134e+00	
180	6.309573e+01	-3.14134e+00	
181	6.456542e+01	-3.14135e+00	
182	6.606934e+01	-3.14135e+00	
183	6.760830e+01	-3.14136e+00	
184	6.918310e+01	-3.14136e+00	
185	7.079458e+01	-3.14137e+00	
186	7.244360e+01	-3.14137e+00	
187	7.413102e+01	-3.14138e+00	
188	7.585776e+01	-3.14138e+00	
189	7.762471e+01	-3.14139e+00	
190	7.943282e+01	-3.14139e+00	
191	8.128305e+01	-3.14140e+00	
192	8.317638e+01	-3.14140e+00	
193	8.511380e+01	-3.14141e+00	
194	8.709636e+01	-3.14141e+00	
195	8.912509e+01	-3.14142e+00	
196	9.120108e+01	-3.14142e+00	
197	9.332543e+01	-3.14142e+00	
198	9.549926e+01	-3.14143e+00	
199	9.772372e+01	-3.14143e+00	
200	1.000000e+02	-3.14143e+00	
201	1.023293e+02	-3.14144e+00	
202	1.047129e+02	-3.14144e+00	
203	1.071519e+02	-3.14145e+00	
204	1.096478e+02	-3.14145e+00	
205	1.122018e+02	-3.14145e+00	
206	1.148154e+02	-3.14146e+00	
207	1.174898e+02	-3.14146e+00	
208	1.202264e+02	-3.14146e+00	
209	1.230269e+02	-3.14146e+00	
210	1.258925e+02	-3.14147e+00	
211	1.288250e+02	-3.14147e+00	
212	1.318257e+02	-3.14147e+00	
213	1.348963e+02	-3.14148e+00	
214	1.380384e+02	-3.14148e+00	
215	1.412538e+02	-3.14148e+00	
216	1.445440e+02	-3.14148e+00	
217	1.479108e+02	-3.14149e+00	
218	1.513561e+02	-3.14149e+00	
219	1.548817e+02	-3.14149e+00	
220	1.584893e+02	-3.14149e+00	
221	1.621810e+02	-3.14150e+00	
222	1.659587e+02	-3.14150e+00	
223	1.698244e+02	-3.14150e+00	
224	1.737801e+02	-3.14150e+00	
225	1.778279e+02	-3.14151e+00	
226	1.819701e+02	-3.14151e+00	
227	1.862087e+02	-3.14151e+00	
228	1.905461e+02	-3.14151e+00	

Index   frequency       cph(out)        
--------------------------------------------------------------------------------
229	1.949845e+02	-3.14151e+00	
230	1.995262e+02	-3.14152e+00	
231	2.041738e+02	-3.14152e+00	
232	2.089296e+02	-3.14152e+00	
233	2.137962e+02	-3.14152e+00	
234	2.187762e+02	-3.14152e+00	
235	2.238721e+02	-3.14152e+00	
236	2.290868e+02	-3.14153e+00	
237	2.344229e+02	-3.14153e+00	
238	2.398833e+02	-3.14153e+00	
239	2.454709e+02	-3.14153e+00	
240	2.511886e+02	-3.14153e+00	
241	2.570396e+02	-3.14153e+00	
242	2.630268e+02	-3.14154e+00	
243	2.691535e+02	-3.14154e+00	
244	2.754229e+02	-3.14154e+00	
245	2.818383e+02	-3.14154e+00	
246	2.884032e+02	-3.14154e+00	
247	2.951209e+02	-3.14154e+00	
248	3.019952e+02	-3.14154e+00	
249	3.090295e+02	-3.14154e+00	
250	3.162278e+02	-3.14155e+00	
251	3.235937e+02	-3.14155e+00	
252	3.311311e+02	-3.14155e+00	
253	3.388442e+02	-3.14155e+00	
254	3.467369e+02	-3.14155e+00	
255	3.548134e+02	-3.14155e+00	
256	3.630781e+02	-3.14155e+00	
257	3.715352e+02	-3.14155e+00	
258	3.801894e+02	-3.14156e+00	
259	3.890451e+02	-3.14156e+00	
260	3.981072e+02	-3.14156e+00	
261	4.073803e+02	-3.14156e+00	
262	4.168694e+02	-3.14156e+00	
263	4.265795e+02	-3.14156e+00	
264	4.365158e+02	-3.14156e+00	
265	4.466836e+02	-3.14156e+00	
266	4.570882e+02	-3.14156e+00	
267	4.677351e+02	-3.14156e+00	
268	4.786301e+02	-3.14156e+00	
269	4.897788e+02	-3.14157e+00	
270	5.011872e+02	-3.14157e+00	
271	5.128614e+02	-3.14157e+00	
272	5.248075e+02	-3.14157e+00	
273	5.370318e+02	-3.14157e+00	
274	5.495409e+02	-3.14157e+00	
275	5.623413e+02	-3.14157e+00	
276	5.754399e+02	-3.14157e+00	
277	5.888437e+02	-3.14157e+00	
278	6.025596e+02	-3.14157e+00	
279	6.165950e+02	-3.14157e+00	
280	6.309573e+02	-3.14157e+00	
281	6.456542e+02	-3.14158e+00	
282	6.606934e+02	-3.14158e+00	
283	6.760830e+02	-3.14158e+00	
284	6.918310e+02	-3.14158e+00	
285	7.079458e+02	-3.14158e+00	
286	7.244360e+02	-3.14158e+00	

Index   frequency       cph(out)        
--------------------------------------------------------------------------------
287	7.413102e+02	-3.14158e+00	
288	7.585776e+02	-3.14158e+00	
289	7.762471e+02	-3.14158e+00	
290	7.943282e+02	-3.14158e+00	
291	8.128305e+02	-3.14158e+00	
292	8.317638e+02	-3.14158e+00	
293	8.511380e+02	-3.14158e+00	
294	8.709636e+02	-3.14158e+00	
295	8.912509e+02	-3.14158e+00	
296	9.120108e+02	-3.14159e+00	
297	9.332543e+02	-3.14159e+00	
298	9.549926e+02	-3.14159e+00	
299	9.772372e+02	-3.14159e+00	
300	1.000000e+03	-3.14159e+00	
301	1.023293e+03	-3.14159e+00	
302	1.047129e+03	-3.14159e+00	
303	1.071519e+03	-3.14159e+00	
304	1.096478e+03	-3.14159e+00	
305	1.122018e+03	-3.14159e+00	
306	1.148154e+03	-3.14159e+00	
307	1.174898e+03	-3.14159e+00	
308	1.202264e+03	-3.14159e+00	
309	1.230269e+03	-3.14159e+00	
310	1.258925e+03	-3.14159e+00	
311	1.288250e+03	-3.14159e+00	
312	1.318257e+03	-3.14160e+00	
313	1.348963e+03	-3.14160e+00	
314	1.380384e+03	-3.14160e+00	
315	1.412538e+03	-3.14160e+00	
316	1.445440e+03	-3.14160e+00	
317	1.479108e+03	-3.14160e+00	
318	1.513561e+03	-3.14160e+00	
319	1.548817e+03	-3.14160e+00	
320	1.584893e+03	-3.14160e+00	
321	1.621810e+03	-3.14160e+00	
322	1.659587e+03	-3.14160e+00	
323	1.698244e+03	-3.14160e+00	
324	1.737801e+03	-3.14160e+00	
325	1.778279e+03	-3.14160e+00	
326	1.819701e+03	-3.14160e+00	
327	1.862087e+03	-3.14161e+00	
328	1.905461e+03	-3.14161e+00	
329	1.949845e+03	-3.14161e+00	
330	1.995262e+03	-3.14161e+00	
331	2.041738e+03	-3.14161e+00	
332	2.089296e+03	-3.14161e+00	
333	2.137962e+03	-3.14161e+00	
334	2.187762e+03	-3.14161e+00	
335	2.238721e+03	-3.14161e+00	
336	2.290868e+03	-3.14161e+00	
337	2.344229e+03	-3.14161e+00	
338	2.398833e+03	-3.14161e+00	
339	2.454709e+03	-3.14161e+00	
340	2.511886e+03	-3.14161e+00	
341	2.570396e+03	-3.14162e+00	
342	2.630268e+03	-3.14162e+00	
343	2.691535e+03	-3.14162e+00	
344	2.754229e+03	-3.14162e+00	

Index   frequency       cph(out)        
--------------------------------------------------------------------------------
345	2.818383e+03	-3.14162e+00	
346	2.884032e+03	-3.14162e+00	
347	2.951209e+03	-3.14162e+00	
348	3.019952e+03	-3.14162e+00	
349	3.090295e+03	-3.14162e+00	
350	3.162278e+03	-3.14162e+00	
351	3.235937e+03	-3.14162e+00	
352	3.311311e+03	-3.14163e+00	
353	3.388442e+03	-3.14163e+00	
354	3.467369e+03	-3.14163e+00	
355	3.548134e+03	-3.14163e+00	
356	3.630781e+03	-3.14163e+00	
357	3.715352e+03	-3.14163e+00	
358	3.801894e+03	-3.14163e+00	
359	3.890451e+03	-3.14163e+00	
360	3.981072e+03	-3.14163e+00	
361	4.073803e+03	-3.14163e+00	
362	4.168694e+03	-3.14164e+00	
363	4.265795e+03	-3.14164e+00	
364	4.365158e+03	-3.14164e+00	
365	4.466836e+03	-3.14164e+00	
366	4.570882e+03	-3.14164e+00	
367	4.677351e+03	-3.14164e+00	
368	4.786301e+03	-3.14164e+00	
369	4.897788e+03	-3.14164e+00	
370	5.011872e+03	-3.14165e+00	
371	5.128614e+03	-3.14165e+00	
372	5.248075e+03	-3.14165e+00	
373	5.370318e+03	-3.14165e+00	
374	5.495409e+03	-3.14165e+00	
375	5.623413e+03	-3.14165e+00	
376	5.754399e+03	-3.14165e+00	
377	5.888437e+03	-3.14166e+00	
378	6.025596e+03	-3.14166e+00	
379	6.165950e+03	-3.14166e+00	
380	6.309573e+03	-3.14166e+00	
381	6.456542e+03	-3.14166e+00	
382	6.606934e+03	-3.14166e+00	
383	6.760830e+03	-3.14167e+00	
384	6.918310e+03	-3.14167e+00	
385	7.079458e+03	-3.14167e+00	
386	7.244360e+03	-3.14167e+00	
387	7.413102e+03	-3.14167e+00	
388	7.585776e+03	-3.14168e+00	
389	7.762471e+03	-3.14168e+00	
390	7.943282e+03	-3.14168e+00	
391	8.128305e+03	-3.14168e+00	
392	8.317638e+03	-3.14168e+00	
393	8.511380e+03	-3.14169e+00	
394	8.709636e+03	-3.14169e+00	
395	8.912509e+03	-3.14169e+00	
396	9.120108e+03	-3.14169e+00	
397	9.332543e+03	-3.14170e+00	
398	9.549926e+03	-3.14170e+00	
399	9.772372e+03	-3.14170e+00	
400	1.000000e+04	-3.14170e+00	
401	1.023293e+04	-3.14171e+00	
402	1.047129e+04	-3.14171e+00	

Index   frequency       cph(out)        
--------------------------------------------------------------------------------
403	1.071519e+04	-3.14171e+00	
404	1.096478e+04	-3.14172e+00	
405	1.122018e+04	-3.14172e+00	
406	1.148154e+04	-3.14172e+00	
407	1.174898e+04	-3.14172e+00	
408	1.202264e+04	-3.14173e+00	
409	1.230269e+04	-3.14173e+00	
410	1.258925e+04	-3.14173e+00	
411	1.288250e+04	-3.14174e+00	
412	1.318257e+04	-3.14174e+00	
413	1.348963e+04	-3.14174e+00	
414	1.380384e+04	-3.14175e+00	
415	1.412538e+04	-3.14175e+00	
416	1.445440e+04	-3.14175e+00	
417	1.479108e+04	-3.14176e+00	
418	1.513561e+04	-3.14176e+00	
419	1.548817e+04	-3.14177e+00	
420	1.584893e+04	-3.14177e+00	
421	1.621810e+04	-3.14177e+00	
422	1.659587e+04	-3.14178e+00	
423	1.698244e+04	-3.14178e+00	
424	1.737801e+04	-3.14179e+00	
425	1.778279e+04	-3.14179e+00	
426	1.819701e+04	-3.14180e+00	
427	1.862087e+04	-3.14180e+00	
428	1.905461e+04	-3.14181e+00	
429	1.949845e+04	-3.14181e+00	
430	1.995262e+04	-3.14182e+00	
431	2.041738e+04	-3.14182e+00	
432	2.089296e+04	-3.14183e+00	
433	2.137962e+04	-3.14183e+00	
434	2.187762e+04	-3.14184e+00	
435	2.238721e+04	-3.14184e+00	
436	2.290868e+04	-3.14185e+00	
437	2.344229e+04	-3.14186e+00	
438	2.398833e+04	-3.14186e+00	
439	2.454709e+04	-3.14187e+00	
440	2.511886e+04	-3.14188e+00	
441	2.570396e+04	-3.14188e+00	
442	2.630268e+04	-3.14189e+00	
443	2.691535e+04	-3.14190e+00	
444	2.754229e+04	-3.14190e+00	
445	2.818383e+04	-3.14191e+00	
446	2.884032e+04	-3.14192e+00	
447	2.951209e+04	-3.14193e+00	
448	3.019952e+04	-3.14193e+00	
449	3.090295e+04	-3.14194e+00	
450	3.162278e+04	-3.14195e+00	
451	3.235937e+04	-3.14196e+00	
452	3.311311e+04	-3.14197e+00	
453	3.388442e+04	-3.14198e+00	
454	3.467369e+04	-3.14198e+00	
455	3.548134e+04	-3.14199e+00	
456	3.630781e+04	-3.14200e+00	
457	3.715352e+04	-3.14201e+00	
458	3.801894e+04	-3.14202e+00	
459	3.890451e+04	-3.14203e+00	
460	3.981072e+04	-3.14204e+00	

Index   frequency       cph(out)        
--------------------------------------------------------------------------------
461	4.073803e+04	-3.14205e+00	
462	4.168694e+04	-3.14206e+00	
463	4.265795e+04	-3.14207e+00	
464	4.365158e+04	-3.14209e+00	
465	4.466836e+04	-3.14210e+00	
466	4.570882e+04	-3.14211e+00	
467	4.677351e+04	-3.14212e+00	
468	4.786301e+04	-3.14213e+00	
469	4.897788e+04	-3.14215e+00	
470	5.011872e+04	-3.14216e+00	
471	5.128614e+04	-3.14217e+00	
472	5.248075e+04	-3.14219e+00	
473	5.370318e+04	-3.14220e+00	
474	5.495409e+04	-3.14221e+00	
475	5.623413e+04	-3.14223e+00	
476	5.754399e+04	-3.14224e+00	
477	5.888437e+04	-3.14226e+00	
478	6.025596e+04	-3.14227e+00	
479	6.165950e+04	-3.14229e+00	
480	6.309573e+04	-3.14231e+00	
481	6.456542e+04	-3.14232e+00	
482	6.606934e+04	-3.14234e+00	
483	6.760830e+04	-3.14236e+00	
484	6.918310e+04	-3.14237e+00	
485	7.079458e+04	-3.14239e+00	
486	7.244360e+04	-3.14241e+00	
487	7.413102e+04	-3.14243e+00	
488	7.585776e+04	-3.14245e+00	
489	7.762471e+04	-3.14247e+00	
490	7.943282e+04	-3.14249e+00	
491	8.128305e+04	-3.14251e+00	
492	8.317638e+04	-3.14253e+00	
493	8.511380e+04	-3.14255e+00	
494	8.709636e+04	-3.14258e+00	
495	8.912509e+04	-3.14260e+00	
496	9.120108e+04	-3.14262e+00	
497	9.332543e+04	-3.14265e+00	
498	9.549926e+04	-3.14267e+00	
499	9.772372e+04	-3.14270e+00	
500	1.000000e+05	-3.14272e+00	
501	1.023293e+05	-3.14275e+00	
502	1.047129e+05	-3.14278e+00	
503	1.071519e+05	-3.14280e+00	
504	1.096478e+05	-3.14283e+00	
505	1.122018e+05	-3.14286e+00	
506	1.148154e+05	-3.14289e+00	
507	1.174898e+05	-3.14292e+00	
508	1.202264e+05	-3.14295e+00	
509	1.230269e+05	-3.14298e+00	
510	1.258925e+05	-3.14301e+00	
511	1.288250e+05	-3.14305e+00	
512	1.318257e+05	-3.14308e+00	
513	1.348963e+05	-3.14312e+00	
514	1.380384e+05	-3.14315e+00	
515	1.412538e+05	-3.14319e+00	
516	1.445440e+05	-3.14323e+00	
517	1.479108e+05	-3.14326e+00	
518	1.513561e+05	-3.14330e+00	

Index   frequency       cph(out)        
--------------------------------------------------------------------------------
519	1.548817e+05	-3.14334e+00	
520	1.584893e+05	-3.14338e+00	
521	1.621810e+05	-3.14342e+00	
522	1.659587e+05	-3.14347e+00	
523	1.698244e+05	-3.14351e+00	
524	1.737801e+05	-3.14356e+00	
525	1.778279e+05	-3.14360e+00	
526	1.819701e+05	-3.14365e+00	
527	1.862087e+05	-3.14370e+00	
528	1.905461e+05	-3.14375e+00	
529	1.949845e+05	-3.14380e+00	
530	1.995262e+05	-3.14385e+00	
531	2.041738e+05	-3.14390e+00	
532	2.089296e+05	-3.14395e+00	
533	2.137962e+05	-3.14401e+00	
534	2.187762e+05	-3.14406e+00	
535	2.238721e+05	-3.14412e+00	
536	2.290868e+05	-3.14418e+00	
537	2.344229e+05	-3.14424e+00	
538	2.398833e+05	-3.14430e+00	
539	2.454709e+05	-3.14437e+00	
540	2.511886e+05	-3.14443e+00	
541	2.570396e+05	-3.14450e+00	
542	2.630268e+05	-3.14456e+00	
543	2.691535e+05	-3.14463e+00	
544	2.754229e+05	-3.14470e+00	
545	2.818383e+05	-3.14478e+00	
546	2.884032e+05	-3.14485e+00	
547	2.951209e+05	-3.14493e+00	
548	3.019952e+05	-3.14500e+00	
549	3.090295e+05	-3.14508e+00	
550	3.162278e+05	-3.14517e+00	
551	3.235937e+05	-3.14525e+00	
552	3.311311e+05	-3.14533e+00	
553	3.388442e+05	-3.14542e+00	
554	3.467369e+05	-3.14551e+00	
555	3.548134e+05	-3.14560e+00	
556	3.630781e+05	-3.14570e+00	
557	3.715352e+05	-3.14579e+00	
558	3.801894e+05	-3.14589e+00	
559	3.890451e+05	-3.14599e+00	
560	3.981072e+05	-3.14609e+00	
561	4.073803e+05	-3.14620e+00	
562	4.168694e+05	-3.14630e+00	
563	4.265795e+05	-3.14641e+00	
564	4.365158e+05	-3.14653e+00	
565	4.466836e+05	-3.14664e+00	
566	4.570882e+05	-3.14676e+00	
567	4.677351e+05	-3.14688e+00	
568	4.786301e+05	-3.14700e+00	
569	4.897788e+05	-3.14713e+00	
570	5.011872e+05	-3.14726e+00	
571	5.128614e+05	-3.14739e+00	
572	5.248075e+05	-3.14752e+00	
573	5.370318e+05	-3.14766e+00	
574	5.495409e+05	-3.14780e+00	
575	5.623413e+05	-3.14795e+00	
576	5.754399e+05	-3.14810e+00	

Index   frequency       cph(out)        
--------------------------------------------------------------------------------
577	5.888437e+05	-3.14825e+00	
578	6.025596e+05	-3.14840e+00	
579	6.165950e+05	-3.14856e+00	
580	6.309573e+05	-3.14872e+00	
581	6.456542e+05	-3.14889e+00	
582	6.606934e+05	-3.14906e+00	
583	6.760830e+05	-3.14923e+00	
584	6.918310e+05	-3.14941e+00	
585	7.079458e+05	-3.14959e+00	
586	7.244360e+05	-3.14978e+00	
587	7.413102e+05	-3.14997e+00	
588	7.585776e+05	-3.15017e+00	
589	7.762471e+05	-3.15037e+00	
590	7.943282e+05	-3.15057e+00	
591	8.128305e+05	-3.15078e+00	
592	8.317638e+05	-3.15099e+00	
593	8.511380e+05	-3.15121e+00	
594	8.709636e+05	-3.15144e+00	
595	8.912509e+05	-3.15167e+00	
596	9.120108e+05	-3.15190e+00	
597	9.332543e+05	-3.15214e+00	
598	9.549926e+05	-3.15239e+00	
599	9.772372e+05	-3.15264e+00	
600	1.000000e+06	-3.15290e+00	
601	1.023293e+06	-3.15316e+00	
602	1.047129e+06	-3.15343e+00	
603	1.071519e+06	-3.15371e+00	
604	1.096478e+06	-3.15399e+00	
605	1.122018e+06	-3.15428e+00	
606	1.148154e+06	-3.15457e+00	
607	1.174898e+06	-3.15488e+00	
608	1.202264e+06	-3.15519e+00	
609	1.230269e+06	-3.15550e+00	
610	1.258925e+06	-3.15583e+00	
611	1.288250e+06	-3.15616e+00	
612	1.318257e+06	-3.15650e+00	
613	1.348963e+06	-3.15685e+00	
614	1.380384e+06	-3.15721e+00	
615	1.412538e+06	-3.15757e+00	
616	1.445440e+06	-3.15794e+00	
617	1.479108e+06	-3.15833e+00	
618	1.513561e+06	-3.15872e+00	
619	1.548817e+06	-3.15912e+00	
620	1.584893e+06	-3.15953e+00	
621	1.621810e+06	-3.15994e+00	
622	1.659587e+06	-3.16037e+00	
623	1.698244e+06	-3.16081e+00	
624	1.737801e+06	-3.16126e+00	
625	1.778279e+06	-3.16172e+00	
626	1.819701e+06	-3.16219e+00	
627	1.862087e+06	-3.16267e+00	
628	1.905461e+06	-3.16317e+00	
629	1.949845e+06	-3.16367e+00	
630	1.995262e+06	-3.16419e+00	
631	2.041738e+06	-3.16472e+00	
632	2.089296e+06	-3.16526e+00	
633	2.137962e+06	-3.16581e+00	
634	2.187762e+06	-3.16638e+00	

Index   frequency       cph(out)        
--------------------------------------------------------------------------------
635	2.238721e+06	-3.16696e+00	
636	2.290868e+06	-3.16755e+00	
637	2.344229e+06	-3.16816e+00	
638	2.398833e+06	-3.16878e+00	
639	2.454709e+06	-3.16942e+00	
640	2.511886e+06	-3.17008e+00	
641	2.570396e+06	-3.17074e+00	
642	2.630268e+06	-3.17143e+00	
643	2.691535e+06	-3.17213e+00	
644	2.754229e+06	-3.17285e+00	
645	2.818383e+06	-3.17358e+00	
646	2.884032e+06	-3.17433e+00	
647	2.951209e+06	-3.17510e+00	
648	3.019952e+06	-3.17589e+00	
649	3.090295e+06	-3.17670e+00	
650	3.162278e+06	-3.17753e+00	
651	3.235937e+06	-3.17837e+00	
652	3.311311e+06	-3.17924e+00	
653	3.388442e+06	-3.18013e+00	
654	3.467369e+06	-3.18104e+00	
655	3.548134e+06	-3.18197e+00	
656	3.630781e+06	-3.18292e+00	
657	3.715352e+06	-3.18390e+00	
658	3.801894e+06	-3.18490e+00	
659	3.890451e+06	-3.18593e+00	
660	3.981072e+06	-3.18698e+00	
661	4.073803e+06	-3.18806e+00	
662	4.168694e+06	-3.18916e+00	
663	4.265795e+06	-3.19029e+00	
664	4.365158e+06	-3.19145e+00	
665	4.466836e+06	-3.19264e+00	
666	4.570882e+06	-3.19386e+00	
667	4.677351e+06	-3.19510e+00	
668	4.786301e+06	-3.19638e+00	
669	4.897788e+06	-3.19769e+00	
670	5.011872e+06	-3.19904e+00	
671	5.128614e+06	-3.20041e+00	
672	5.248075e+06	-3.20183e+00	
673	5.370318e+06	-3.20328e+00	
674	5.495409e+06	-3.20476e+00	
675	5.623413e+06	-3.20629e+00	
676	5.754399e+06	-3.20785e+00	
677	5.888437e+06	-3.20945e+00	
678	6.025596e+06	-3.21110e+00	
679	6.165950e+06	-3.21279e+00	
680	6.309573e+06	-3.21452e+00	
681	6.456542e+06	-3.21630e+00	
682	6.606934e+06	-3.21812e+00	
683	6.760830e+06	-3.22000e+00	
684	6.918310e+06	-3.22192e+00	
685	7.079458e+06	-3.22390e+00	
686	7.244360e+06	-3.22593e+00	
687	7.413102e+06	-3.22801e+00	
688	7.585776e+06	-3.23016e+00	
689	7.762471e+06	-3.23236e+00	
690	7.943282e+06	-3.23462e+00	
691	8.128305e+06	-3.23695e+00	
692	8.317638e+06	-3.23935e+00	

Index   frequency       cph(out)        
--------------------------------------------------------------------------------
693	8.511380e+06	-3.24181e+00	
694	8.709636e+06	-3.24434e+00	
695	8.912509e+06	-3.24695e+00	
696	9.120108e+06	-3.24963e+00	
697	9.332543e+06	-3.25240e+00	
698	9.549926e+06	-3.25524e+00	
699	9.772372e+06	-3.25817e+00	
700	1.000000e+07	-3.26119e+00	
701	1.023293e+07	-3.26431e+00	
702	1.047129e+07	-3.26752e+00	
703	1.071519e+07	-3.27083e+00	
704	1.096478e+07	-3.27424e+00	
705	1.122018e+07	-3.27777e+00	
706	1.148154e+07	-3.28141e+00	
707	1.174898e+07	-3.28517e+00	
708	1.202264e+07	-3.28905e+00	
709	1.230269e+07	-3.29307e+00	
710	1.258925e+07	-3.29722e+00	
711	1.288250e+07	-3.30152e+00	
712	1.318257e+07	-3.30597e+00	
713	1.348963e+07	-3.31057e+00	
714	1.380384e+07	-3.31535e+00	
715	1.412538e+07	-3.32029e+00	
716	1.445440e+07	-3.32542e+00	
717	1.479108e+07	-3.33075e+00	
718	1.513561e+07	-3.33627e+00	
719	1.548817e+07	-3.34202e+00	
720	1.584893e+07	-3.34799e+00	
721	1.621810e+07	-3.35419e+00	
722	1.659587e+07	-3.36066e+00	
723	1.698244e+07	-3.36738e+00	
724	1.737801e+07	-3.37440e+00	
725	1.778279e+07	-3.38171e+00	
726	1.819701e+07	-3.38934e+00	
727	1.862087e+07	-3.39731e+00	
728	1.905461e+07	-3.40564e+00	
729	1.949845e+07	-3.41434e+00	
730	1.995262e+07	-3.42346e+00	
731	2.041738e+07	-3.43300e+00	
732	2.089296e+07	-3.44301e+00	
733	2.137962e+07	-3.45351e+00	
734	2.187762e+07	-3.46453e+00	
735	2.238721e+07	-3.47611e+00	
736	2.290868e+07	-3.48828e+00	
737	2.344229e+07	-3.50109e+00	
738	2.398833e+07	-3.51459e+00	
739	2.454709e+07	-3.52881e+00	
740	2.511886e+07	-3.54381e+00	
741	2.570396e+07	-3.55965e+00	
742	2.630268e+07	-3.57638e+00	
743	2.691535e+07	-3.59406e+00	
744	2.754229e+07	-3.61276e+00	
745	2.818383e+07	-3.63254e+00	
746	2.884032e+07	-3.65349e+00	
747	2.951209e+07	-3.67568e+00	
748	3.019952e+07	-3.69918e+00	
749	3.090295e+07	-3.72407e+00	
750	3.162278e+07	-3.75044e+00	

Index   frequency       cph(out)        
--------------------------------------------------------------------------------
751	3.235937e+07	-3.77836e+00	
752	3.311311e+07	-3.80791e+00	
753	3.388442e+07	-3.83916e+00	
754	3.467369e+07	-3.87217e+00	
755	3.548134e+07	-3.90699e+00	
756	3.630781e+07	-3.94366e+00	
757	3.715352e+07	-3.98218e+00	
758	3.801894e+07	-4.02254e+00	
759	3.890451e+07	-4.06470e+00	
760	3.981072e+07	-4.10858e+00	
761	4.073803e+07	-4.15405e+00	
762	4.168694e+07	-4.20095e+00	
763	4.265795e+07	-4.24909e+00	
764	4.365158e+07	-4.29821e+00	
765	4.466836e+07	-4.34805e+00	
766	4.570882e+07	-4.39828e+00	
767	4.677351e+07	-4.44861e+00	
768	4.786301e+07	-4.49868e+00	
769	4.897788e+07	-4.54817e+00	
770	5.011872e+07	-4.59678e+00	
771	5.128614e+07	-4.64422e+00	
772	5.248075e+07	-4.69025e+00	
773	5.370318e+07	-4.73463e+00	
774	5.495409e+07	-4.77722e+00	
775	5.623413e+07	-4.81788e+00	
776	5.754399e+07	-4.85651e+00	
777	5.888437e+07	-4.89308e+00	
778	6.025596e+07	-4.92756e+00	
779	6.165950e+07	-4.95996e+00	
780	6.309573e+07	-4.99030e+00	
781	6.456542e+07	-5.01864e+00	
782	6.606934e+07	-5.04503e+00	
783	6.760830e+07	-5.06955e+00	
784	6.918310e+07	-5.09228e+00	
785	7.079458e+07	-5.11329e+00	
786	7.244360e+07	-5.13266e+00	
787	7.413102e+07	-5.15048e+00	
788	7.585776e+07	-5.16683e+00	
789	7.762471e+07	-5.18179e+00	
790	7.943282e+07	-5.19543e+00	
791	8.128305e+07	-5.20783e+00	
792	8.317638e+07	-5.21905e+00	
793	8.511380e+07	-5.22917e+00	
794	8.709636e+07	-5.23823e+00	
795	8.912509e+07	-5.24631e+00	
796	9.120108e+07	-5.25346e+00	
797	9.332543e+07	-5.25973e+00	
798	9.549926e+07	-5.26516e+00	
799	9.772372e+07	-5.26981e+00	
800	1.000000e+08	-5.27372e+00	
801	1.023293e+08	-5.27692e+00	
802	1.047129e+08	-5.27946e+00	
803	1.071519e+08	-5.28137e+00	
804	1.096478e+08	-5.28269e+00	
805	1.122018e+08	-5.28345e+00	
806	1.148154e+08	-5.28367e+00	
807	1.174898e+08	-5.28340e+00	
808	1.202264e+08	-5.28264e+00	

Index   frequency       cph(out)        
--------------------------------------------------------------------------------
809	1.230269e+08	-5.28144e+00	
810	1.258925e+08	-5.27981e+00	
811	1.288250e+08	-5.27778e+00	
812	1.318257e+08	-5.27538e+00	
813	1.348963e+08	-5.27261e+00	
814	1.380384e+08	-5.26951e+00	
815	1.412538e+08	-5.26609e+00	
816	1.445440e+08	-5.26238e+00	
817	1.479108e+08	-5.25838e+00	
ngspice-33 done
